
 ANSYS Mechanical Enterprise                       


 *------------------------------------------------------------------*
 |                                                                  |
 |   W E L C O M E   T O   T H E   A N S Y S (R)  P R O G R A M     |
 |                                                                  |
 *------------------------------------------------------------------*




 ***************************************************************
 *            ANSYS Release 19.0     LEGAL NOTICES             *
 ***************************************************************
 *                                                             *
 * Copyright 1971-2017 ANSYS, Inc.  All rights reserved.       *
 * Unauthorized use, distribution or duplication is            *
 * prohibited.                                                 *
 *                                                             *
 * Ansys is a registered trademark of ANSYS, Inc. or its       *
 * subsidiaries in the United States or other countries.       *
 * See the ANSYS, Inc. online documentation or the ANSYS, Inc. *
 * documentation CD or online help for the complete Legal      *
 * Notice.                                                     *
 *                                                             *
 ***************************************************************
 *                                                             *
 * THIS ANSYS SOFTWARE PRODUCT AND PROGRAM DOCUMENTATION       *
 * INCLUDE TRADE SECRETS AND CONFIDENTIAL AND PROPRIETARY      *
 * PRODUCTS OF ANSYS, INC., ITS SUBSIDIARIES, OR LICENSORS.    *
 * The software products and documentation are furnished by    *
 * ANSYS, Inc. or its subsidiaries under a software license    *
 * agreement that contains provisions concerning               *
 * non-disclosure, copying, length and nature of use,          *
 * compliance with exporting laws, warranties, disclaimers,    *
 * limitations of liability, and remedies, and other           *
 * provisions.  The software products and documentation may be *
 * used, disclosed, transferred, or copied only in accordance  *
 * with the terms and conditions of that software license      *
 * agreement.                                                  *
 *                                                             *
 * ANSYS, Inc. is a UL registered                              *
 * ISO 9001:2008 company.                                      *
 *                                                             *
 ***************************************************************
 *                                                             *
 * This product is subject to U.S. laws governing export and   *
 * re-export.                                                  *
 *                                                             *
 * For U.S. Government users, except as specifically granted   *
 * by the ANSYS, Inc. software license agreement, the use,     *
 * duplication, or disclosure by the United States Government  *
 * is subject to restrictions stated in the ANSYS, Inc.        *
 * software license agreement and FAR 12.212 (for non-DOD      *
 * licenses).                                                  *
 *                                                             *
 ***************************************************************

 Release 19.0
     
 Point Releases and Patches installed:   
     
 ANSYS, Inc. Products Release 19.0   
 SpaceClaim Release 19.0 
 AIM Release 19.0
 Autodyn Release 19.0
 CFD-Post only Release 19.0  
 CFX (includes CFD-Post) Release 19.0
 Chemkin Release 19.0
 FENSAP-ICE Release 19.0 
 Fluent (includes CFD-Post) Release 19.0 
 Forte Release 19.0  
 Polyflow (includes CFD-Post) Release 19.0   
 TurboGrid Release 19.0  
 ICEM CFD Release 19.0   
 Aqwa Release 19.0   
 Customization Files for User Programmable Features Release 19.0 
 Mechanical Products Release 19.0
 Viewer Release 19.0 
 ACIS Geometry Interface Release 19.0
 Catia, Version 5 Geometry Interface Release 19.0
 Catia, Version 6 Geometry Interface Release 19.0
 Creo Elements/Direct Modeling Geometry Interface Release 19.0   
 Creo Parametric Geometry Interface Release 19.0 
 Inventor Geometry Interface Release 19.0
 JTOpen Geometry Interface Release 19.0  
 NX Geometry Interface Release 19.0  
 Parasolid Geometry Interface  Release 19.0  
 Solid Edge Geometry Interface Release 19.0  
 SOLIDWORKS Geometry Interface Release 19.0  
 ANSYS, Inc. License Manager Release 19.0


          *****  ANSYS COMMAND LINE ARGUMENTS  *****
  BATCH MODE REQUESTED (-b)    = NOLIST
  INPUT FILE COPY MODE (-c)    = COPY
  DISTRIBUTED MEMORY PARALLEL REQUESTED
       2 PARALLEL PROCESSES REQUESTED WITH SINGLE THREAD PER PROCESS
    TOTAL OF     2 CORES REQUESTED
  MPI OPTION                   = INTELMPI
  INPUT FILE NAME              = C:\Users\ianea\_ProjectScratch\Scr9EA\dummy.dat
  OUTPUT FILE NAME             = C:\Users\ianea\_ProjectScratch\Scr9EA\solve.out
  START-UP FILE MODE           = NOREAD
  STOP FILE MODE               = NOREAD

 RELEASE= Release 19.0         BUILD= 19.0      UP20171214   VERSION=WINDOWS x64 
 CURRENT JOBNAME=file0  15:53:01  NOV 10, 2022 CP=      0.125


 PARAMETER _DS_PROGRESS =     999.0000000    

 /INPUT FILE= ds.dat  LINE=       0



 *** NOTE ***                            CP =       0.156   TIME= 15:53:01
 The /CONFIG,NOELDB command is not valid in a Distributed ANSYS          
 solution.  Command is ignored.                                          

 *GET  _WALLSTRT  FROM  ACTI  ITEM=TIME WALL  VALUE=  15.8836111    

 TITLE= 
 Thursday1040am--Modal (D5)                                                    


 SET PARAMETER DIMENSIONS ON  _WB_PROJECTSCRATCH_DIR
  TYPE=STRI  DIMENSIONS=      248        1        1

 PARAMETER _WB_PROJECTSCRATCH_DIR(1) = C:\Users\ianea\_ProjectScratch\Scr9EA\

 SET PARAMETER DIMENSIONS ON  _WB_SOLVERFILES_DIR
  TYPE=STRI  DIMENSIONS=      248        1        1

 PARAMETER _WB_SOLVERFILES_DIR(1) = C:\Users\ianea\Thursday1040am_files\dp0\SYS-1\MECH\

 SET PARAMETER DIMENSIONS ON  _WB_USERFILES_DIR
  TYPE=STRI  DIMENSIONS=      248        1        1

 PARAMETER _WB_USERFILES_DIR(1) = C:\Users\ianea\Thursday1040am_files\user_files\
 --- Data in consistent MKS units. See Solving Units in the help system for more

 MKS UNITS SPECIFIED FOR INTERNAL    
  LENGTH        (l)  = METER (M)
  MASS          (M)  = KILOGRAM (KG)
  TIME          (t)  = SECOND (SEC)
  TEMPERATURE   (T)  = CELSIUS (C)
  TOFFSET            = 273.0
  CHARGE        (Q)  = COULOMB
  FORCE         (f)  = NEWTON (N) (KG-M/SEC2)
  HEAT               = JOULE (N-M)

  PRESSURE           = PASCAL (NEWTON/M**2)
  ENERGY        (W)  = JOULE (N-M)
  POWER         (P)  = WATT (N-M/SEC)
  CURRENT       (i)  = AMPERE (COULOMBS/SEC)
  CAPACITANCE   (C)  = FARAD
  INDUCTANCE    (L)  = HENRY
  MAGNETIC FLUX      = WEBER
  RESISTANCE    (R)  = OHM
  ELECTRIC POTENTIAL = VOLT

 INPUT  UNITS ARE ALSO SET TO MKS 

 *** ANSYS - ENGINEERING ANALYSIS SYSTEM  RELEASE Release 19.0     19.0     ***
 DISTRIBUTED ANSYS Mechanical Enterprise                       

 00243192  VERSION=WINDOWS x64   15:53:01  NOV 10, 2022 CP=      0.156

 Thursday1040am--Modal (D5)                                                    



          ***** ANSYS ANALYSIS DEFINITION (PREP7) *****
 *********** Nodes for the whole assembly ***********
 *********** Elements for Body 1 "Geom-1\Beam (CircularTubeDN800)" ***********
 *********** Send User Defined Coordinate System(s) ***********
 *********** Set Reference Temperature ***********
 *********** Send Materials ***********
 *********** Send Beam Properties ***********
 *********** Fixed Supports ***********


 ***** ROUTINE COMPLETED *****  CP =         0.156


 --- Number of total nodes = 1001
 --- Number of contact elements = 0
 --- Number of spring elements = 0
 --- Number of bearing elements = 0
 --- Number of solid elements = 500
 --- Number of condensed parts = 0
 --- Number of total elements = 500

 *GET  _WALLBSOL  FROM  ACTI  ITEM=TIME WALL  VALUE=  15.8836111    

 *****  ANSYS SOLUTION ROUTINE  *****


 PERFORM A MODAL ANALYSIS
  THIS WILL BE A NEW ANALYSIS


 USE SYM. BLOCK LANCZOS MODE EXTRACTION METHOD
  EXTRACT   10 MODES
  NORMALIZE THE MODE SHAPES TO THE MASS MATRIX

 ERASE THE CURRENT DATABASE OUTPUT CONTROL TABLE.


 WRITE ALL  ITEMS TO THE DATABASE WITH A FREQUENCY OF NONE
   FOR ALL APPLICABLE ENTITIES

 WRITE NSOL ITEMS TO THE DATABASE WITH A FREQUENCY OF ALL 
   FOR ALL APPLICABLE ENTITIES

 PRINTOUT RESUMED BY /GOP

 WRITE MISC ITEMS TO THE DATABASE WITH A FREQUENCY OF ALL 
   FOR THE ENTITIES DEFINED BY COMPONENT _ELMISC 


 EXPAND ALL EXTRACTED MODES
  CALCULATE ELEMENT RESULTS AND NODAL DOF SOLUTION
  CALCULATE STRESSES IN ANY DOWNSTREAM MODE SUPERPOSITION EXPANSION PASS

 DO NOT COMBINE ELEMENT SAVE DATA FILES (.esav) AFTER DISTRIBUTED PARALLEL SOLUTION

 DO NOT COMBINE ELEMENT MATRIX FILES (.emat) AFTER DISTRIBUTED PARALLEL SOLUTION

 DO NOT COMBINE ASSEMBLED MATRIX FILES (.full) AFTER DISTRIBUTED PARALLEL SOLUTION

 *GET  ANSINTER_  FROM  ACTI  ITEM=INT        VALUE=  0.00000000    

 *IF  ANSINTER_                         ( =   0.00000     )  NE  
      0                                 ( =   0.00000     )  THEN    

 *ENDIF

 *** NOTE ***                            CP =       0.156   TIME= 15:53:01
 The automatic domain decomposition logic has selected the MESH domain   
 decomposition method with 2 processes per solution.                     

 *****  ANSYS SOLVE    COMMAND  *****

 *** WARNING ***                         CP =       0.156   TIME= 15:53:01
 Element shape checking is currently inactive.  Issue SHPP,ON or         
 SHPP,WARN to reactivate, if desired.                                    

 *** NOTE ***                            CP =       0.156   TIME= 15:53:01
 The model data was checked and warning messages were found.             
  Please review output or errors file (                                  
 C:\Users\ianea\_ProjectScratch\Scr9EA\file0.err ) for these warning     
 messages.                                                               

 *** SELECTION OF ELEMENT TECHNOLOGIES FOR APPLICABLE ELEMENTS ***
      --- GIVE SUGGESTIONS AND RESET THE KEY OPTIONS ---

 ELEMENT TYPE    1 IS BEAM188 . KEYOPT(3) IS ALREADY SET AS SUGGESTED AND NO
 RESETTING IS NEEDED.

 ELEMENT TYPE    1 IS BEAM188 . KEYOPT(15) IS ALREADY SET AS SUGGESTED AND NO
 RESETTING IS NEEDED.



 *** ANSYS - ENGINEERING ANALYSIS SYSTEM  RELEASE Release 19.0     19.0     ***
 DISTRIBUTED ANSYS Mechanical Enterprise                       

 00243192  VERSION=WINDOWS x64   15:53:01  NOV 10, 2022 CP=      0.156

 Thursday1040am--Modal (D5)                                                    



                       S O L U T I O N   O P T I O N S

   PROBLEM DIMENSIONALITY. . . . . . . . . . . . .3-D                  
   DEGREES OF FREEDOM. . . . . . UX   UY   UZ   ROTX ROTY ROTZ
   ANALYSIS TYPE . . . . . . . . . . . . . . . . .MODAL                
      EXTRACTION METHOD. . . . . . . . . . . . . .BLOCK LANCZOS
   OFFSET TEMPERATURE FROM ABSOLUTE ZERO . . . . .  273.15    
   NUMBER OF MODES TO EXTRACT. . . . . . . . . . .    10
   GLOBALLY ASSEMBLED MATRIX . . . . . . . . . . .SYMMETRIC  
   NUMBER OF MODES TO EXPAND . . . . . . . . . . .ALL
   ELEMENT RESULTS CALCULATION . . . . . . . . . .ON 

 *** NOTE ***                            CP =       0.156   TIME= 15:53:01
 The conditions for direct assembly have been met.  No .emat or .erot    
 files will be produced.                                                 

 *** NOTE ***                            CP =       0.188   TIME= 15:53:01
 Internal nodes from 1002 to 1501 are created.                           
 500 internal nodes are used for quadratic and/or cubic options of       
 BEAM188, PIPE288, and/or SHELL208.                                      

  
  
     D I S T R I B U T E D   D O M A I N   D E C O M P O S E R
  
  ...Number of elements: 500
  ...Number of nodes:    1501
  ...Decompose to 2 CPU domains
  ...Element load balance ratio =     1.000


                      L O A D   S T E P   O P T I O N S

   LOAD STEP NUMBER. . . . . . . . . . . . . . . .     1
   THERMAL STRAINS INCLUDED IN THE LOAD VECTOR . .   YES
   PRINT OUTPUT CONTROLS . . . . . . . . . . . . .NO PRINTOUT
   DATABASE OUTPUT CONTROLS
      ITEM     FREQUENCY   COMPONENT
       ALL       NONE               
      NSOL        ALL               
      MISC        ALL       _ELMISC 



                         ***********  PRECISE MASS SUMMARY  ***********

   TOTAL RIGID BODY MASS MATRIX ABOUT ORIGIN
               Translational mass               |   Coupled translational/rotational mass
         2173.9        0.0000        0.0000     |     0.0000       0.66556E-12    0.0000    
         0.0000        2173.9        0.0000     |   -0.66556E-12    0.0000        10870.    
         0.0000        0.0000        2173.9     |     0.0000       -10870.        0.0000    
     ------------------------------------------ | ------------------------------------------
                                                |         Rotational mass (inertia)
                                                |     349.19       0.26708E-29  -0.44264E-11
                                                |    0.26708E-29    72639.      -0.43619E-13
                                                |   -0.44264E-11  -0.43619E-13    72639.    

   TOTAL MASS =  2173.9    
     The mass principal axes coincide with the global Cartesian axes

   CENTER OF MASS (X,Y,Z)=    5.0000        0.0000       0.30615E-15

   TOTAL INERTIA ABOUT CENTER OF MASS
         349.19       0.26708E-29  -0.10986E-11
        0.26708E-29    18291.      -0.43619E-13
       -0.10986E-11  -0.43619E-13    18291.    
     The inertia principal axes coincide with the global Cartesian axes


  *** MASS SUMMARY BY ELEMENT TYPE ***

  TYPE      MASS
     1   2173.94    

 Range of element maximum matrix coefficients in global coordinates
 Maximum = 1.476989859E+12 at element 483.                               
 Minimum = 1.476989859E+12 at element 494.                               

   *** ELEMENT MATRIX FORMULATION TIMES
     TYPE    NUMBER   ENAME      TOTAL CP  AVE CP

        1       500  BEAM188       0.000   0.000000
 Time at end of element matrix formulation CP = 0.21875.                 

  BLOCK LANCZOS CALCULATION OF UP TO   10 EIGENVECTORS.
  NUMBER OF EQUATIONS              =         6000
  MAXIMUM WAVEFRONT                =           24
  MAXIMUM MODES STORED             =           10
  MINIMUM EIGENVALUE               =  0.00000E+00
  MAXIMUM EIGENVALUE               =  0.10000E+31


  Local memory allocated for solver              =      2.231 MB
  Local memory required for in-core solution     =      2.138 MB
  Local memory required for out-of-core solution =      1.650 MB

  Total memory allocated for solver              =      4.417 MB
  Total memory required for in-core solution     =      4.232 MB
  Total memory required for out-of-core solution =      3.256 MB

 *** NOTE ***                            CP =       0.359   TIME= 15:53:01
 The Distributed Sparse Matrix Solver used by the Block Lanczos          
 eigensolver is currently running in the in-core memory mode.  This      
 memory mode uses the most amount of memory in order to avoid using the  
 hard drive as much as possible, which most often results in the         
 fastest solution time.  This mode is recommended if enough physical     
 memory is present to accommodate all of the solver data.                

 *** ANSYS - ENGINEERING ANALYSIS SYSTEM  RELEASE Release 19.0     19.0     ***
 DISTRIBUTED ANSYS Mechanical Enterprise                       

 00243192  VERSION=WINDOWS x64   15:53:01  NOV 10, 2022 CP=      0.422

 Thursday1040am--Modal (D5)                                                    



 *** FREQUENCIES FROM BLOCK LANCZOS ITERATION ***

  MODE    FREQUENCY (HERTZ)      


    1     7.913708160606    
    2     7.913708163422    
    3     46.55792225076    
    4     46.55792225077    
    5     78.25885764206    
    6     119.7713741602    
    7     119.7713741602    
    8     126.1886162842    
    9     212.3303066546    
   10     212.3303066546    

   *** ELEMENT RESULT CALCULATION TIMES
     TYPE    NUMBER   ENAME      TOTAL CP  AVE CP

        1       500  BEAM188       0.000   0.000000

   *** NODAL LOAD CALCULATION TIMES
     TYPE    NUMBER   ENAME      TOTAL CP  AVE CP

        1       500  BEAM188       0.000   0.000000

 *** ANSYS - ENGINEERING ANALYSIS SYSTEM  RELEASE Release 19.0     19.0     ***
 DISTRIBUTED ANSYS Mechanical Enterprise                       

 00243192  VERSION=WINDOWS x64   15:53:01  NOV 10, 2022 CP=      0.625

 Thursday1040am--Modal (D5)                                                    





          ***** PARTICIPATION FACTOR CALCULATION *****  X  DIRECTION
                                                                                  CUMULATIVE     RATIO EFF.MASS
  MODE   FREQUENCY       PERIOD      PARTIC.FACTOR     RATIO    EFFECTIVE MASS   MASS FRACTION   TO TOTAL MASS
     1     7.91371       0.12636        0.0000        0.000000     0.00000         0.00000         0.00000    
     2     7.91371       0.12636        0.0000        0.000000     0.00000         0.00000         0.00000    
     3     46.5579       0.21479E-01    0.0000        0.000000     0.00000         0.00000         0.00000    
     4     46.5579       0.21479E-01    0.0000        0.000000     0.00000         0.00000         0.00000    
     5     78.2589       0.12778E-01    0.0000        0.000000     0.00000         0.00000         0.00000    
     6     119.771       0.83492E-02    0.0000        0.000000     0.00000         0.00000         0.00000    
     7     119.771       0.83492E-02    0.0000        0.000000     0.00000         0.00000         0.00000    
     8     126.189       0.79246E-02    41.978        1.000000     1762.13         1.00000        0.810569    
     9     212.330       0.47096E-02    0.0000        0.000000     0.00000         1.00000         0.00000    
    10     212.330       0.47096E-02    0.0000        0.000000     0.00000         1.00000         0.00000    
 -----------------------------------------------------------------------------------------------------------------
   sum                                                             1762.13                        0.810569    
 -----------------------------------------------------------------------------------------------------------------



          ***** PARTICIPATION FACTOR CALCULATION *****  Y  DIRECTION
                                                                                  CUMULATIVE     RATIO EFF.MASS
  MODE   FREQUENCY       PERIOD      PARTIC.FACTOR     RATIO    EFFECTIVE MASS   MASS FRACTION   TO TOTAL MASS
     1     7.91371       0.12636        36.563        1.000000     1336.88        0.671453        0.614954    
     2     7.91371       0.12636      -0.20279E-04    0.000001    0.411226E-09    0.671453        0.189161E-12
     3     46.5579       0.21479E-01   -20.637        0.564431     425.904        0.885365        0.195913    
     4     46.5579       0.21479E-01  -0.10329        0.002825    0.106697E-01    0.885371        0.490800E-05
     5     78.2589       0.12778E-01    0.0000        0.000000     0.00000        0.885371         0.00000    
     6     119.771       0.83492E-02    12.244        0.334876     149.920        0.960669        0.689620E-01
     7     119.771       0.83492E-02   0.39804        0.010886    0.158433        0.960748        0.728780E-04
     8     126.189       0.79246E-02    0.0000        0.000000     0.00000        0.960748         0.00000    
     9     212.330       0.47096E-02   -8.8403        0.241780     78.1504         1.00000        0.359487E-01
    10     212.330       0.47096E-02   0.28981E-01    0.000793    0.839882E-03     1.00000        0.386340E-06
 -----------------------------------------------------------------------------------------------------------------
   sum                                                             1991.02                        0.915856    
 -----------------------------------------------------------------------------------------------------------------



          ***** PARTICIPATION FACTOR CALCULATION *****  Z  DIRECTION
                                                                                  CUMULATIVE     RATIO EFF.MASS
  MODE   FREQUENCY       PERIOD      PARTIC.FACTOR     RATIO    EFFECTIVE MASS   MASS FRACTION   TO TOTAL MASS
     1     7.91371       0.12636       0.20279E-04    0.000001    0.411226E-09    0.206540E-12    0.189161E-12
     2     7.91371       0.12636        36.563        1.000000     1336.88        0.671453        0.614954    
     3     46.5579       0.21479E-01   0.10329        0.002825    0.106697E-01    0.671458        0.490800E-05
     4     46.5579       0.21479E-01   -20.637        0.564431     425.904        0.885371        0.195913    
     5     78.2589       0.12778E-01    0.0000        0.000000     0.00000        0.885371         0.00000    
     6     119.771       0.83492E-02  -0.39804        0.010886    0.158433        0.885450        0.728780E-04
     7     119.771       0.83492E-02    12.244        0.334876     149.920        0.960748        0.689620E-01
     8     126.189       0.79246E-02    0.0000        0.000000     0.00000        0.960748         0.00000    
     9     212.330       0.47096E-02  -0.28981E-01    0.000793    0.839882E-03    0.960749        0.386340E-06
    10     212.330       0.47096E-02   -8.8403        0.241780     78.1504         1.00000        0.359487E-01
 -----------------------------------------------------------------------------------------------------------------
   sum                                                             1991.02                        0.915856    
 -----------------------------------------------------------------------------------------------------------------



          ***** PARTICIPATION FACTOR CALCULATION *****ROTX DIRECTION
                                                                                  CUMULATIVE     RATIO EFF.MASS
  MODE   FREQUENCY       PERIOD      PARTIC.FACTOR     RATIO    EFFECTIVE MASS   MASS FRACTION   TO TOTAL MASS
     1     7.91371       0.12636        0.0000        0.000000     0.00000         0.00000         0.00000    
     2     7.91371       0.12636        0.0000        0.000000     0.00000         0.00000         0.00000    
     3     46.5579       0.21479E-01    0.0000        0.000000     0.00000         0.00000         0.00000    
     4     46.5579       0.21479E-01    0.0000        0.000000     0.00000         0.00000         0.00000    
     5     78.2589       0.12778E-01    16.824        1.000000     283.041         1.00000        0.810569    
     6     119.771       0.83492E-02    0.0000        0.000000     0.00000         1.00000         0.00000    
     7     119.771       0.83492E-02    0.0000        0.000000     0.00000         1.00000         0.00000    
     8     126.189       0.79246E-02    0.0000        0.000000     0.00000         1.00000         0.00000    
     9     212.330       0.47096E-02    0.0000        0.000000     0.00000         1.00000         0.00000    
    10     212.330       0.47096E-02    0.0000        0.000000     0.00000         1.00000         0.00000    
 -----------------------------------------------------------------------------------------------------------------
   sum                                                             283.041                        0.810569    
 -----------------------------------------------------------------------------------------------------------------



          ***** PARTICIPATION FACTOR CALCULATION *****ROTY DIRECTION
                                                                                  CUMULATIVE     RATIO EFF.MASS
  MODE   FREQUENCY       PERIOD      PARTIC.FACTOR     RATIO    EFFECTIVE MASS   MASS FRACTION   TO TOTAL MASS
     1     7.91371       0.12636      -0.14736E-03    0.000001    0.217156E-07    0.299067E-12    0.298951E-12
     2     7.91371       0.12636       -265.70        1.000000     70596.4        0.972252        0.971875    
     3     46.5579       0.21479E-01  -0.20983        0.000790    0.440294E-01    0.972253        0.606136E-06
     4     46.5579       0.21479E-01    41.923        0.157783     1757.53        0.996457        0.241952E-01
     5     78.2589       0.12778E-01    0.0000        0.000000     0.00000        0.996457         0.00000    
     6     119.771       0.83492E-02   0.47029        0.001770    0.221170        0.996460        0.304477E-05
     7     119.771       0.83492E-02   -14.467        0.054448     209.286        0.999343        0.288116E-02
     8     126.189       0.79246E-02    0.0000        0.000000     0.00000        0.999343         0.00000    
     9     212.330       0.47096E-02   0.22647E-01    0.000085    0.512889E-03    0.999343        0.706075E-08
    10     212.330       0.47096E-02    6.9082        0.026000     47.7239         1.00000        0.656997E-03
 -----------------------------------------------------------------------------------------------------------------
   sum                                                             72611.2                        0.999612    
 -----------------------------------------------------------------------------------------------------------------



          ***** PARTICIPATION FACTOR CALCULATION *****ROTZ DIRECTION
                                                                                  CUMULATIVE     RATIO EFF.MASS
  MODE   FREQUENCY       PERIOD      PARTIC.FACTOR     RATIO    EFFECTIVE MASS   MASS FRACTION   TO TOTAL MASS
     1     7.91371       0.12636        265.70        1.000000     70596.4        0.972252        0.971875    
     2     7.91371       0.12636      -0.14736E-03    0.000001    0.217156E-07    0.972252        0.298951E-12
     3     46.5579       0.21479E-01   -41.923        0.157783     1757.53        0.996457        0.241952E-01
     4     46.5579       0.21479E-01  -0.20983        0.000790    0.440294E-01    0.996457        0.606136E-06
     5     78.2589       0.12778E-01    0.0000        0.000000     0.00000        0.996457         0.00000    
     6     119.771       0.83492E-02    14.467        0.054448     209.286        0.999340        0.288116E-02
     7     119.771       0.83492E-02   0.47029        0.001770    0.221170        0.999343        0.304477E-05
     8     126.189       0.79246E-02    0.0000        0.000000     0.00000        0.999343         0.00000    
     9     212.330       0.47096E-02   -6.9082        0.026000     47.7239         1.00000        0.656997E-03
    10     212.330       0.47096E-02   0.22647E-01    0.000085    0.512889E-03     1.00000        0.706075E-08
 -----------------------------------------------------------------------------------------------------------------
   sum                                                             72611.2                        0.999612    
 -----------------------------------------------------------------------------------------------------------------





 *** NOTE ***                            CP =       0.625   TIME= 15:53:01
 The modes requested are mass normalized (Nrmkey on MODOPT).  However,   
 the modal masses and kinetic energies below are calculated with unit    
 normalized modes.                                                       

        ***** MODAL MASSES, KINETIC ENERGIES, AND TRANSLATIONAL EFFECTIVE MASSES SUMMARY *****

                                                                         EFFECTIVE MASS
  MODE  FREQUENCY   MODAL MASS     KENE      |      X-DIR      RATIO%   Y-DIR      RATIO%   Z-DIR      RATIO% 
     1   7.914       550.5      0.6805E+06   |     0.000        0.00   1337.       61.50  0.4112E-09    0.00
     2   7.914       550.5      0.6805E+06   |     0.000        0.00  0.4112E-09    0.00   1337.       61.50
     3   46.56       593.7      0.2540E+08   |     0.000        0.00   425.9       19.59  0.1067E-01    0.00
     4   46.56       593.7      0.2540E+08   |     0.000        0.00  0.1067E-01    0.00   425.9       19.59
     5   78.26       174.6      0.2111E+08   |     0.000        0.00   0.000        0.00   0.000        0.00
     6   119.8       653.3      0.1850E+09   |     0.000        0.00   149.9        6.90  0.1584        0.01
     7   119.8       653.3      0.1850E+09   |     0.000        0.00  0.1584        0.01   149.9        6.90
     8   126.2       1087.      0.3417E+09   |     1762.       81.06   0.000        0.00   0.000        0.00
     9   212.3       723.4      0.6437E+09   |     0.000        0.00   78.15        3.59  0.8399E-03    0.00
    10   212.3       723.4      0.6437E+09   |     0.000        0.00  0.8399E-03    0.00   78.15        3.59
 --------------------------------------------------------------------------------------------------------------
   sum                                       |     1762.       81.06   1991.       91.59   1991.       91.59
 --------------------------------------------------------------------------------------------------------------


 *** ANSYS BINARY FILE STATISTICS
  BUFFER SIZE USED= 16384
        0.562 MB WRITTEN ON ASSEMBLED MATRIX FILE: file0.full
        0.312 MB WRITTEN ON MODAL MATRIX FILE: file0.mode
        3.625 MB WRITTEN ON RESULTS FILE: file0.rst
 *************** Write FE CONNECTORS *********

 WRITE OUT CONSTRAINT EQUATIONS TO FILE= file.ce                                                                                                                                                                                                                                                             

 *GET  _NMODALSOLPROC  FROM  ACTI  ITEM=NUMC       VALUE=  2.00000000    

 FINISH SOLUTION PROCESSING


 ***** ROUTINE COMPLETED *****  CP =         0.656



 PRINTOUT RESUMED BY /GOP

 *GET  _WALLASOL  FROM  ACTI  ITEM=TIME WALL  VALUE=  15.8836111    

 *** ANSYS - ENGINEERING ANALYSIS SYSTEM  RELEASE Release 19.0     19.0     ***
 DISTRIBUTED ANSYS Mechanical Enterprise                       

 00243192  VERSION=WINDOWS x64   15:53:01  NOV 10, 2022 CP=      0.688

 Thursday1040am--Modal (D5)                                                    



          ***** ANSYS RESULTS INTERPRETATION (POST1) *****

 *** NOTE ***                            CP =       0.688   TIME= 15:53:01
 Reading results into the database (SET command) will update the current 
 displacement and force boundary conditions in the database with the     
 values from the results file for that load set.  Note that any          
 subsequent solutions will use these values unless action is taken to    
 either SAVE the current values or not overwrite them (/EXIT,NOSAVE).    

 PRINTOUT RESUMED BY /GOP

 Set Encoding of XML File to:ISO-8859-1

 Set Output of XML File to:
     PARM,     ,     ,     ,     ,     ,     ,     ,     ,     ,     ,     ,
         ,     ,     ,     ,     ,     ,     ,

 DATABASE WRITTEN ON FILE  parm.xml                                                                                                                                                                                                                                                            

 EXIT THE ANSYS POST1 DATABASE PROCESSOR


 ***** ROUTINE COMPLETED *****  CP =         0.688



 PRINTOUT RESUMED BY /GOP

 *GET  _WALLDONE  FROM  ACTI  ITEM=TIME WALL  VALUE=  15.8836111    

 PARAMETER _PREPTIME =     0.000000000    

 PARAMETER _SOLVTIME =     0.000000000    

 PARAMETER _POSTTIME =     0.000000000    

 PARAMETER _TOTALTIM =     0.000000000    

 EXIT ANSYS WITHOUT SAVING DATABASE


 NUMBER OF WARNING MESSAGES ENCOUNTERED=          1
 NUMBER OF ERROR   MESSAGES ENCOUNTERED=          0

+--------- D I S T R I B U T E D   A N S Y S   S T A T I S T I C S ------------+

Release: Release 19.0       Build: 19.0       Update: UP20171214   Platform: WINDOWS x64 
Date Run: 11/10/2022   Time: 15:53     Process ID: 21220
Operating System: Windows 10  (Build: 19044)

Processor Model: Intel(R) Xeon(R) W-11855M CPU @ 3.20GHz

Compiler: Intel(R) FORTRAN Compiler Version 15.0.7  (Build: 20160518)
          Intel(R) C/C++ Compiler Version 15.0.7  (Build: 20160518)
          Intel(R) Math Kernel Library Version 2017.0.2 Product Build 20170126

Number of machines requested            :    1
Total number of cores available         :   12
Number of physical cores available      :    6
Number of processes requested           :    2
Number of threads per process requested :    1
Total number of cores requested         :    2 (Distributed Memory Parallel)               
MPI Type: INTELMPI
MPI Version: Intel(R) MPI Library 2017 Update 3 for Windows* OS


GPU Acceleration: Not Requested

Job Name: file0
Input File: dummy.dat

  Core                Machine Name   Working Directory
 -----------------------------------------------------
     0                   FluidBoss   C:\Users\ianea\_ProjectScratch\Scr9EA
     1                   FluidBoss   C:\Users\ianea\_ProjectScratch\Scr9EA
 
Latency time from master to core     1 =    0.503 microseconds
 
Communication speed from master to core     1 = 12898.07 MB/sec

Total CPU time for main thread                    :        0.5 seconds
Total CPU time summed for all threads             :        1.0 seconds

Elapsed time spent pre-processing model (/PREP7)  :        0.0 seconds
Elapsed time spent solution - preprocessing       :        0.0 seconds
Elapsed time spent computing solution             :        0.2 seconds
Elapsed time spent solution - postprocessing      :        0.0 seconds
Elapsed time spent post-processing model (/POST1) :        0.0 seconds
 
Eigensolver used                                  :            Block Lanczos

Maximum total memory used                         :      260.0 MB
Maximum total memory allocated                    :     3136.0 MB
Total physical memory available                   :         63 GB

+------ E N D   D I S T R I B U T E D   A N S Y S   S T A T I S T I C S -------+


 *---------------------------------------------------------------------------*
 |                                                                           |
 |                       DISTRIBUTED ANSYS RUN COMPLETED                     |
 |                                                                           |
 |---------------------------------------------------------------------------|
 |                                                                           |
 | Ansys Release 19.0          Build 19.0         UP20171214     WINDOWS x64 |
 |                                                                           |
 |---------------------------------------------------------------------------|
 |                                                                           |
 | Database Requested(-db)  1024 MB    Scratch Memory Requested      1024 MB |
 | Maximum Database Used       1 MB    Maximum Scratch Memory Used    129 MB |
 |                                                                           |
 |---------------------------------------------------------------------------|
 |                                                                           |
 |        CP Time      (sec) =          1.047       Time  =  15:53:02        |
 |        Elapsed Time (sec) =          3.000       Date  =  11/10/2022      |
 |                                                                           |
 *---------------------------------------------------------------------------*
